java/SFINA/configuration_files/experiment-Case2736LineRemovalRandom/output/time_11/iteration_1/flow/links.txt
id,current,real_power_from,reactive_power_from,real_power_to,reactive_power_to,resistance,reactance,susceptance,rateA,rateB,rateC,ratio,angle,angmin,angmax
1,180.355321021722,-718.2223990602633,0.0,718.2223990602633,0.0,6.4E-4,0.0305,0.0,400.0,400.0,400.0,1.0435,-0.6,-360.0,360.0
2,81.0894547793991,-639.9589359161291,0.0,639.9589359161291,0.0,3.6E-4,0.02519,0.0,500.0,500.0,500.0,1.067,0.0,-360.0,360.0
3,195.79727665893,-598.6122616724116,0.0,598.6122616724116,0.0,3.6E-4,0.02519,0.0,500.0,500.0,500.0,1.0671,0.0,-360.0,360.0
4,106.879754542075,1176.1070199735907,0.0,-1176.1070199735907,0.0,3.4E-4,0.02097,0.0,500.0,500.0,500.0,1.1102,0.0,-360.0,360.0
5,93.0792328785367,-1826.9920823415273,0.0,1826.9920823415273,0.0,3.4E-4,0.02097,0.0,500.0,500.0,500.0,1.0917,0.0,-360.0,360.0
6,15.9704857156536,700.412169861008,0.0,-700.412169861008,0.0,8.1E-4,0.03,0.0,400.0,400.0,400.0,1.0466,0.0,-360.0,360.0
7,84.7637380480176,-485.2031139834394,0.0,485.2031139834394,0.0,7.5E-4,0.02444,-0.00832,330.0,330.0,330.0,1.0553,0.0,-360.0,360.0
8,84.1224587610397,-480.12007570785096,0.0,480.12007570785096,0.0,7.5E-4,0.02469,-0.008,330.0,330.0,330.0,1.0552,0.0,-360.0,360.0
9,100.424045590736,908.0285713232149,0.0,-908.0285713232149,0.0,5.0E-4,0.02875,-0.016,400.0,400.0,400.0,1.087,0.0,-360.0,360.0
10,69.2009021720238,-592.3830078598664,0.0,592.3830078598664,0.0,6.4E-4,0.0305,0.0,400.0,400.0,400.0,1.0636,0.0,-360.0,360.0
11,34.6118336169697,33.48054510846552,0.0,-33.48054510846552,0.0,2.32E-4,0.023,0.0,500.0,500.0,500.0,1.0953,0.0,-360.0,360.0
12,33.770459958772,-93.14954510846482,0.0,93.14954510846482,0.0,2.32E-4,0.023,0.0,500.0,500.0,500.0,1.0953,0.0,-360.0,360.0
13,59.983829764349,48.87359510586276,0.0,-48.87359510586276,0.0,3.5E-4,0.02375,0.0,500.0,500.0,500.0,1.0767,0.0,-360.0,360.0
14,60.7552980511339,-23.64492404855757,0.0,23.64492404855757,0.0,5.9E-4,0.03093,0.0,400.0,400.0,400.0,1.0504,0.0,-360.0,360.0
15,207.171743885912,-997.5798652544595,0.0,997.5798652544595,0.0,4.0E-4,0.03,0.0,500.0,500.0,500.0,1.0695,3.6,-360.0,360.0
16,68.3609984712698,-67.8452373357516,0.0,67.8452373357516,0.0,3.1E-4,0.00338,0.0992,1386.0,1386.0,1386.0,0.0,0.0,-360.0,360.0
17,71.3949473271344,-68.48576266424837,0.0,68.48576266424837,0.0,3.1E-4,0.00338,0.0992,1386.0,1386.0,1386.0,0.0,0.0,-360.0,360.0
18,114.586954541048,125.0,0.0,-125.0,0.0,0.014341,0.083531,0.126034,385.0,385.0,385.0,0.0,0.0,-360.0,360.0
19,164.222747356703,-159.41703596889175,0.0,159.41703596889175,0.0,0.01219,0.070659,0.117418,412.0,412.0,412.0,0.0,0.0,-360.0,360.0
20,184.090861767321,-211.78296403110818,0.0,211.78296403110818,0.0,0.011781,0.07087,0.116838,412.0,412.0,412.0,0.0,0.0,-360.0,360.0
21,423.766423866487,431.4999999999999,0.0,-431.4999999999999,0.0,0.001525,0.016837,0.50576,1386.0,1386.0,1386.0,0.0,0.0,-360.0,360.0
22,84.4920740426486,88.11462696599995,0.0,-88.11462696599995,0.0,0.001651,0.015909,0.046948,316.0,316.0,316.0,0.0,0.0,-360.0,360.0
23,83.9689478030168,88.57637303400006,0.0,-88.57637303400006,0.0,0.001651,0.015909,0.046948,316.0,316.0,316.0,0.0,0.0,-360.0,360.0
24,177.969586271309,-154.03397701023957,0.0,154.03397701023957,0.0,0.00188,0.02287,0.6432,831.0,831.0,831.0,0.0,0.0,-360.0,360.0
25,177.526731718423,-153.54802298976057,0.0,153.54802298976057,0.0,0.00188,0.02287,0.6432,831.0,831.0,831.0,0.0,0.0,-360.0,360.0
26,182.052072873707,177.604,0.0,-177.604,0.0,0.002769,0.031162,0.89824,1386.0,1386.0,1386.0,0.0,0.0,-360.0,360.0
27,151.342504232945,426.19707679001874,0.0,-426.19707679001874,0.0,0.01345,0.081141,0.141134,339.0,339.0,339.0,0.0,0.0,-360.0,360.0
28,131.052612605808,4266.4685585547995,0.0,-4266.4685585547995,0.0,0.009091,0.062401,0.111417,453.0,453.0,453.0,0.0,0.0,-360.0,360.0
29,179.065426269906,2624.742441436243,0.0,-2624.742441436243,0.0,0.00868,0.06405,0.096994,427.0,427.0,427.0,0.0,0.0,-360.0,360.0
30,76.1327782105833,448.1935004521271,0.0,-448.1935004521271,0.0,0.016961,0.123659,0.196988,316.0,316.0,316.0,0.0,0.0,-360.0,360.0
31,93.7147795044748,319.357152989349,0.0,-319.357152989349,0.0,0.00512,0.02618,0.029621,301.0,301.0,301.0,0.0,0.0,-360.0,360.0
32,135.839592276234,0.0,0.0,-0.0,0.0,0.01068,0.061961,0.094961,385.0,385.0,385.0,0.0,0.0,-360.0,360.0
33,94.6694098210901,418.5513700104748,0.0,-418.5513700104748,0.0,0.014651,0.105891,0.170852,316.0,316.0,316.0,0.0,0.0,-360.0,360.0
34,69.4610848520956,363.8538652997594,0.0,-363.8538652997594,0.0,0.01488,0.08161,0.114805,314.0,314.0,314.0,0.0,0.0,-360.0,360.0
35,111.071246576596,-2582.5220610369743,0.0,2582.5220610369743,0.0,0.011159,0.07231,0.103673,324.0,324.0,324.0,0.0,0.0,-360.0,360.0
36,148.967575997243,-318.46454434747545,0.0,318.46454434747545,0.0,0.005517,0.059484,0.170775,316.0,316.0,316.0,0.0,0.0,-360.0,360.0
37,199.924601227796,-1495.2688135013486,0.0,1495.2688135013486,0.0,0.01176,0.068289,0.102802,324.0,324.0,324.0,0.0,0.0,-360.0,360.0
38,141.013088986602,-579.8227498724833,0.0,579.8227498724833,0.0,0.016818,0.089091,0.129935,358.0,358.0,358.0,0.0,0.0,-360.0,360.0
39,145.578936582072,-599.3515874599932,0.0,599.3515874599932,0.0,0.013843,0.087025,0.134842,383.0,383.0,383.0,0.0,0.0,-360.0,360.0
40,7.67965258752969,594.5361195197471,0.0,-594.5361195197471,0.0,0.01676,0.097169,0.148685,269.0,269.0,269.0,0.0,0.0,-360.0,360.0
41,163.397570109841,498.10832252925917,0.0,-498.10832252925917,0.0,0.01269,0.074979,0.130196,351.0,351.0,351.0,0.0,0.0,-360.0,360.0
42,39.6528516188175,1113.7118425562094,0.0,-1113.7118425562094,0.0,0.014091,0.10413,0.15972,316.0,316.0,316.0,0.0,0.0,-360.0,360.0
43,11.3116315082377,-18.359000000000705,0.0,18.359000000000705,0.0,0.003719,0.0438,0.100962,457.0,457.0,457.0,0.0,0.0,-360.0,360.0
44,484.874107887109,-2223.1495482290597,0.0,2223.1495482290597,0.0,0.00194,0.02056,0.51584,1178.0,1178.0,1178.0,0.0,0.0,-360.0,360.0
45,334.167843481924,2867.0160604273756,0.0,-2867.0160604273756,0.0,0.0015,0.01506,0.4032,1386.0,1386.0,1386.0,0.0,0.0,-360.0,360.0
46,48.8150035841873,1320.067880477968,0.0,-1320.067880477968,0.0,0.00294,0.03463,0.9216,693.0,693.0,693.0,0.0,0.0,-360.0,360.0
47,22.1697182025936,-290.1314816922949,0.0,290.1314816922949,0.0,0.00169,0.01994,0.50624,831.0,831.0,831.0,0.0,0.0,-360.0,360.0
48,218.989689987098,0.0,0.0,-0.0,0.0,0.00137,0.01625,0.41184,1386.0,1386.0,1386.0,0.0,0.0,-360.0,360.0
49,321.117320321774,-2103.8451061642854,0.0,2103.8451061642854,0.0,0.00231,0.02769,0.70144,1386.0,1386.0,1386.0,0.0,0.0,-360.0,360.0
50,389.397814835165,3968.134596167158,0.0,-3968.134596167158,0.0,0.00207,0.02474,0.664,1386.0,1386.0,1386.0,0.0,0.0,-360.0,360.0
51,88.5640704059808,-197.05199999998018,0.0,197.05199999998018,0.0,0.0015,0.01788,0.4512,831.0,831.0,831.0,0.0,0.0,-360.0,360.0
52,137.955778886216,-155.3685183077207,0.0,155.3685183077207,0.0,0.00469,0.05544,1.4048,831.0,831.0,831.0,0.0,0.0,-360.0,360.0
53,139.325918215453,51.05100000000037,0.0,-51.05100000000037,0.0,0.00331,0.03425,0.85888,977.0,977.0,977.0,0.0,0.0,-360.0,360.0
54,141.383754750647,1543.2894900028743,0.0,-1543.2894900028743,0.0,0.00219,0.02369,0.59584,1178.0,1178.0,1178.0,0.0,0.0,-360.0,360.0
55,214.328663311504,-620.4753796250488,0.0,620.4753796250488,0.0,0.01674,0.09711,0.144232,427.0,427.0,427.0,0.0,0.0,-360.0,360.0
56,16.5543180517823,0.0,0.0,-0.0,0.0,0.0057,0.0407,0.06021,316.0,316.0,316.0,0.0,0.0,-360.0,360.0
57,162.214081744471,-806.4293055466735,0.0,806.4293055466735,0.0,0.004419,0.032229,0.049852,383.0,383.0,383.0,0.0,0.0,-360.0,360.0
58,90.2299960978722,1364.7330000017591,0.0,-1364.7330000017591,0.0,0.014591,0.11219,0.165528,383.0,383.0,383.0,0.0,0.0,-360.0,360.0
59,19.9985424946443,7.778762083562021E-13,0.0,-7.778762083562021E-13,0.0,0.01211,0.087419,0.140166,316.0,316.0,316.0,0.0,0.0,-360.0,360.0
60,174.575725875757,930.9771841745121,0.0,-930.9771841745121,0.0,0.009773,0.050516,0.088959,377.0,377.0,377.0,0.0,0.0,-360.0,360.0
61,71.1237560988172,70.18153835858847,0.0,-70.18153835858847,0.0,0.01068,0.07895,0.245194,274.0,274.0,274.0,0.0,0.0,-360.0,360.0
62,174.475055459487,1209.761470506761,0.0,-1209.761470506761,0.0,0.0057,0.039521,0.075533,440.0,440.0,440.0,0.0,0.0,-360.0,360.0
63,255.632368046332,-1266.5183491344942,0.0,1266.5183491344942,0.0,0.0057,0.039521,0.075533,440.0,440.0,440.0,0.0,0.0,-360.0,360.0
64,20.6707572439134,-1364.733000001457,0.0,1364.733000001457,0.0,0.00525,0.03988,0.061952,316.0,316.0,316.0,0.0,0.0,-360.0,360.0
65,90.2465432752618,1364.7330000014317,0.0,-1364.7330000014317,0.0,2.1E-5,2.07E-4,0.0,316.0,316.0,316.0,0.0,0.0,-360.0,360.0
66,99.0829853888943,0.0,0.0,-0.0,0.0,9.3E-4,0.00651,0.011132,316.0,316.0,316.0,0.0,0.0,-360.0,360.0
67,7.13332146894186,-1090.6512644996792,0.0,1090.6512644996792,0.0,0.00205,0.01326,0.022429,385.0,385.0,385.0,0.0,0.0,-360.0,360.0
68,100.393721480162,0.0,0.0,-0.0,0.0,0.007831,0.043,0.04962,301.0,301.0,301.0,0.0,0.0,-360.0,360.0
69,124.05978008285,-11.40412003604622,0.0,11.40412003604622,0.0,0.00293,0.01599,0.024781,324.0,324.0,324.0,0.0,0.0,-360.0,360.0
70,97.6568679096133,0.0,0.0,-0.0,0.0,0.00155,0.01169,0.018198,633.0,633.0,633.0,0.0,0.0,-360.0,360.0
71,65.2108330066375,0.0,0.0,-0.0,0.0,0.00155,0.01169,0.018198,633.0,633.0,633.0,0.0,0.0,-360.0,360.0
72,240.886893848934,-872.6206287697753,0.0,872.6206287697753,0.0,0.003841,0.028531,0.045883,392.0,392.0,392.0,0.0,0.0,-360.0,360.0
73,55.6217847468429,-1089.1017050791183,0.0,1089.1017050791183,0.0,0.00298,0.03418,0.93504,831.0,831.0,831.0,0.0,0.0,-360.0,360.0
74,489.835242396357,3968.1345961671545,0.0,-3968.1345961671545,0.0,0.00358,0.04262,1.0944,1386.0,1386.0,1386.0,0.0,0.0,-360.0,360.0
75,431.373325356895,-0.0,0.0,0.0,0.0,0.00336,0.03977,1.02163,1316.0,1316.0,1316.0,0.0,0.0,-360.0,360.0
76,149.733561961312,0.0,0.0,-0.0,0.0,0.00299,0.03675,0.9184,1150.0,1150.0,1150.0,0.0,0.0,-360.0,360.0
77,192.280243303529,0.0,0.0,-0.0,0.0,0.00112,0.01329,0.341248,1150.0,1150.0,1150.0,0.0,0.0,-360.0,360.0
78,296.925103183348,-1286.7713083581016,0.0,1286.7713083581016,0.0,7.5E-4,0.009,0.22848,1150.0,1150.0,1150.0,0.0,0.0,-360.0,360.0
79,1.21649578354109,-14.319146714064445,0.0,14.319146714064445,0.0,0.010479,0.060969,0.092047,269.0,269.0,269.0,0.0,0.0,-360.0,360.0
80,33.7223357023656,642.7309052039576,0.0,-642.7309052039576,0.0,0.00882,0.065641,0.100662,274.0,274.0,274.0,0.0,0.0,-360.0,360.0
81,15.2955223158851,523.1494804272389,0.0,-523.1494804272389,0.0,0.011219,0.065581,0.098349,274.0,274.0,274.0,0.0,0.0,-360.0,360.0
82,11.5736779468265,84.8180000000029,0.0,-84.8180000000029,0.0,0.01163,0.07031,0.105802,341.0,341.0,341.0,0.0,0.0,-360.0,360.0
83,23.3618809292739,29.53185328593775,0.0,-29.53185328593775,0.0,0.00545,0.040211,0.066986,404.0,404.0,404.0,0.0,0.0,-360.0,360.0
84,24.0460685355023,17.868973435509545,0.0,-17.868973435509545,0.0,0.00545,0.040211,0.066986,404.0,404.0,404.0,0.0,0.0,-360.0,360.0
85,21.0967320162338,-84.81800000000291,0.0,84.81800000000291,0.0,0.00837,0.04868,0.073481,379.0,379.0,379.0,0.0,0.0,-360.0,360.0
86,64.3077992473982,90.5581109354055,0.0,-90.5581109354055,0.0,0.003159,0.02076,0.03146,385.0,385.0,385.0,0.0,0.0,-360.0,360.0
87,40.1809365869885,-2.670808453997124E-14,0.0,2.670808453997124E-14,0.0,0.006979,0.051961,0.079666,316.0,316.0,316.0,0.0,0.0,-360.0,360.0
88,71.2897097071395,-494.9077616455922,0.0,494.9077616455922,0.0,0.00374,0.027831,0.042689,274.0,274.0,274.0,0.0,0.0,-360.0,360.0
89,33.5892461549813,954.151000000982,0.0,-954.151000000982,0.0,0.00769,0.057271,0.087894,316.0,316.0,316.0,0.0,0.0,-360.0,360.0
90,47.6046712700988,954.1510000009914,0.0,-954.1510000009914,0.0,0.00556,0.04145,0.063598,383.0,383.0,383.0,0.0,0.0,-360.0,360.0
91,53.8592012362859,-635.6980459937228,0.0,635.6980459937228,0.0,0.004521,0.03368,0.051691,392.0,392.0,392.0,0.0,0.0,-360.0,360.0
92,38.8298854596848,0.0,0.0,-0.0,0.0,0.00151,0.008781,0.013165,341.0,341.0,341.0,0.0,0.0,-360.0,360.0
93,18.7968457465082,7.307061119732501,0.0,-7.307061119732501,0.0,0.00574,0.042831,0.065727,404.0,404.0,404.0,0.0,0.0,-360.0,360.0
94,18.4964133000527,7.012085594331976,0.0,-7.012085594331976,0.0,0.00707,0.045409,0.069309,314.0,314.0,314.0,0.0,0.0,-360.0,360.0
95,56.9097175322177,362.9908918440353,0.0,-362.9908918440353,0.0,0.01213,0.062151,0.093712,314.0,314.0,314.0,0.0,0.0,-360.0,360.0
96,73.656330613214,-819.6784064908813,0.0,819.6784064908813,0.0,0.002479,0.017979,0.027588,316.0,316.0,316.0,0.0,0.0,-360.0,360.0
97,68.0544705203344,-222.8827692718185,0.0,222.8827692718185,0.0,0.002401,0.01494,0.022525,341.0,341.0,341.0,0.0,0.0,-360.0,360.0
98,48.2075196130927,-497.4766954293041,0.0,497.4766954293041,0.0,0.00167,0.0189,0.54176,1150.0,1150.0,1150.0,0.0,0.0,-360.0,360.0
99,139.678850666379,-1588.0457629636855,0.0,1588.0457629636855,0.0,0.00109,0.01277,0.34176,1150.0,1150.0,1150.0,0.0,0.0,-360.0,360.0
100,118.657903492612,1176.107019973596,0.0,-1176.107019973596,0.0,0.002259,0.026439,0.70784,1150.0,1150.0,1150.0,0.0,0.0,-360.0,360.0
101,176.744875257605,-682.8635183077221,0.0,682.8635183077221,0.0,9.4E-4,0.01097,0.29376,1393.0,1393.0,1393.0,0.0,0.0,-360.0,360.0
102,326.228723467062,-330.4430000000019,0.0,330.4430000000019,0.0,0.00113,0.01406,0.37488,1386.0,1386.0,1386.0,0.0,0.0,-360.0,360.0
103,39.518187535843,-1887.4211618005902,0.0,1887.4211618005902,0.0,0.00176,0.02144,0.57344,1150.0,1150.0,1150.0,0.0,0.0,-360.0,360.0
104,78.441808740214,1167.1015493287757,0.0,-1167.1015493287757,0.0,0.004876,0.033616,0.059609,404.0,404.0,404.0,0.0,0.0,-360.0,360.0
105,6.94815682839294,-548.6993606846778,0.0,548.6993606846778,0.0,0.01093,0.059194,0.08439,246.0,246.0,246.0,0.0,0.0,-360.0,360.0
106,67.8978403765528,889.4599006520659,0.0,-889.4599006520659,0.0,0.001942,0.013926,0.022845,404.0,404.0,404.0,0.0,0.0,-360.0,360.0
107,104.258808681964,16.407964031111085,0.0,-16.407964031111085,0.0,0.004318,0.029752,0.05264,316.0,316.0,316.0,0.0,0.0,-360.0,360.0
108,87.2316912467579,-2800.5307771184503,0.0,2800.5307771184503,0.0,6.61E-4,0.004959,0.007579,379.0,379.0,379.0,0.0,0.0,-360.0,360.0
109,38.2614681046301,-2800.530777118453,0.0,2800.530777118453,0.0,0.005372,0.040393,0.060055,379.0,379.0,379.0,0.0,0.0,-360.0,360.0
110,125.678898287371,391.7454256267662,0.0,-391.7454256267662,0.0,8.26E-4,0.005248,0.008683,301.0,301.0,301.0,0.0,0.0,-360.0,360.0
111,57.2757169725179,-387.6362242793242,0.0,387.6362242793242,0.0,0.015888,0.087603,0.116818,314.0,314.0,314.0,0.0,0.0,-360.0,360.0
112,12.5234560499393,-4.934000000005603,0.0,4.934000000005603,0.0,0.002169,0.014587,0.025749,269.0,269.0,269.0,0.0,0.0,-360.0,360.0
113,60.6465915707475,328.86273620893223,0.0,-328.86273620893223,0.0,0.017727,0.116777,0.163611,246.0,246.0,246.0,0.0,0.0,-360.0,360.0
114,45.3031766803505,-424.49299902476554,0.0,424.49299902476554,0.0,0.00593,0.04093,0.072145,404.0,404.0,404.0,0.0,0.0,-360.0,360.0
115,80.3914768366688,-456.86647784790847,0.0,456.86647784790847,0.0,0.003905,0.028471,0.044983,383.0,383.0,383.0,0.0,0.0,-360.0,360.0
116,55.7057338699541,104.49999999999748,0.0,-104.49999999999748,0.0,0.008161,0.042417,0.061197,356.0,356.0,356.0,0.0,0.0,-360.0,360.0
117,55.00825936995,-551.4987894464466,0.0,551.4987894464466,0.0,0.008161,0.042417,0.061197,356.0,356.0,356.0,0.0,0.0,-360.0,360.0
118,120.73657864284,160.9170359688924,0.0,-160.9170359688924,0.0,0.005186,0.038388,0.058748,453.0,453.0,453.0,0.0,0.0,-360.0,360.0
119,112.365538707602,411.07626324188067,0.0,-411.07626324188067,0.0,0.002128,0.014029,0.022603,301.0,301.0,301.0,0.0,0.0,-360.0,360.0
120,89.8748924886875,-379.169947311633,0.0,379.169947311633,0.0,0.004628,0.027748,0.046115,324.0,324.0,324.0,0.0,0.0,-360.0,360.0
121,54.5969667403144,-411.07626324188146,0.0,411.07626324188146,0.0,0.011219,0.070744,0.115705,246.0,246.0,246.0,0.0,0.0,-360.0,360.0
122,79.6499945391495,3.3467064913821736E-14,0.0,-3.3467064913821736E-14,0.0,0.006012,0.041467,0.073636,383.0,383.0,383.0,0.0,0.0,-360.0,360.0
123,67.8851387590433,-284.22290398189165,0.0,284.22290398189165,0.0,0.002066,0.012789,0.020551,269.0,269.0,269.0,0.0,0.0,-360.0,360.0
124,91.39547745786,-4308.688938953979,0.0,4308.688938953979,0.0,0.001364,0.009731,0.016243,453.0,453.0,453.0,0.0,0.0,-360.0,360.0
125,50.2342932991705,-4263.8249389539005,0.0,4263.8249389539005,0.0,5.79E-4,0.004112,0.007008,404.0,404.0,404.0,0.0,0.0,-360.0,360.0
126,115.057805651335,-1.500000000000099,0.0,1.500000000000099,0.0,8.47E-4,0.00624,0.009544,457.0,457.0,457.0,0.0,0.0,-360.0,360.0
127,2.8421709430404E-12,0.0,0.0,-0.0,0.0,8.47E-4,0.00626,0.009477,457.0,457.0,457.0,0.0,0.0,-360.0,360.0
128,89.2919658198736,4.993806336025354E-13,0.0,-4.993806336025354E-13,0.0,0.001591,0.011116,0.019128,453.0,453.0,453.0,0.0,0.0,-360.0,360.0
129,128.065682057263,645.6214745736969,0.0,-645.6214745736969,0.0,0.003141,0.021591,0.038391,404.0,404.0,404.0,0.0,0.0,-360.0,360.0
130,86.9206030661718,377.64700000017103,0.0,-377.64700000017103,0.0,0.004545,0.03157,0.055312,316.0,316.0,316.0,0.0,0.0,-360.0,360.0
131,15.2597151239714,3.498484372243233E-14,0.0,-3.498484372243233E-14,0.0,0.001446,0.009917,0.017598,316.0,316.0,316.0,0.0,0.0,-360.0,360.0
132,13.8946769074172,-544.7491139604506,0.0,544.7491139604506,0.0,0.003822,0.026674,0.046154,316.0,316.0,316.0,0.0,0.0,-360.0,360.0
133,13.3863588712332,-8.908732271676633E-12,0.0,8.908732271676633E-12,0.0,0.007769,0.041281,0.063907,269.0,269.0,269.0,0.0,0.0,-360.0,360.0
134,84.8428669158014,655.1900991632856,0.0,-655.1900991632856,0.0,0.004463,0.030413,0.048671,246.0,246.0,246.0,0.0,0.0,-360.0,360.0
135,51.8373438695916,112.0000000000005,0.0,-112.0000000000005,0.0,0.005888,0.035062,0.052349,246.0,246.0,246.0,0.0,0.0,-360.0,360.0
136,45.4991415447628,8.600000000003307,0.0,-8.600000000003307,0.0,0.003161,0.023409,0.036165,316.0,316.0,316.0,0.0,0.0,-360.0,360.0
137,55.6123044794793,-449.99898599617507,0.0,449.99898599617507,0.0,0.001839,0.012603,0.022399,316.0,316.0,316.0,0.0,0.0,-360.0,360.0
138,37.1727149610748,975.1545273853837,0.0,-975.1545273853837,0.0,0.001715,0.009607,0.014239,301.0,301.0,301.0,0.0,0.0,-360.0,360.0
139,59.0750424052614,-15.216999999996606,0.0,15.216999999996606,0.0,0.003409,0.024421,0.039969,246.0,246.0,246.0,0.0,0.0,-360.0,360.0
140,51.5367303270484,-444.6987078802675,0.0,444.6987078802675,0.0,0.001839,0.012603,0.02239,316.0,316.0,316.0,0.0,0.0,-360.0,360.0
141,25.2911422907818,1683.3910629752154,0.0,-1683.3910629752154,0.0,0.005702,0.041488,0.066172,404.0,404.0,404.0,0.0,0.0,-360.0,360.0
142,71.1764932505305,-430.33520683460813,0.0,430.33520683460813,0.0,0.004587,0.024628,0.036165,314.0,314.0,314.0,0.0,0.0,-360.0,360.0
143,11.310822813708,0.0,0.0,-0.0,0.0,0.002149,0.013327,0.022109,246.0,246.0,246.0,0.0,0.0,-360.0,360.0
144,7.80593316080273,8.031999999999982,0.0,-8.031999999999982,0.0,7.85E-4,0.004876,0.00726,269.0,269.0,269.0,0.0,0.0,-360.0,360.0
145,9.49068438005533,10.326999999999991,0.0,-10.326999999999991,0.0,7.85E-4,0.004876,0.007241,269.0,269.0,269.0,0.0,0.0,-360.0,360.0
146,172.916771933092,-852.2894900038473,0.0,852.2894900038473,0.0,0.002413,0.027544,0.767968,831.0,831.0,831.0,0.0,0.0,-360.0,360.0
147,61.7894287926474,1961.5263386730292,0.0,-1961.5263386730292,0.0,0.002131,0.024319,0.67744,1386.0,1386.0,1386.0,0.0,0.0,-360.0,360.0
148,73.2488397606107,445.49999999997743,0.0,-445.49999999997743,0.0,9.13E-4,0.0104,0.289888,1150.0,1150.0,1150.0,0.0,0.0,-360.0,360.0
149,144.942812489551,-290.1314816922949,0.0,290.1314816922949,0.0,0.003119,0.035631,0.991072,831.0,831.0,831.0,0.0,0.0,-360.0,360.0
150,77.9354541442166,445.49999999997726,0.0,-445.49999999997726,0.0,9.19E-4,0.010512,0.292928,1150.0,1150.0,1150.0,0.0,0.0,-360.0,360.0
151,188.151163122147,-432.47114230925473,0.0,432.47114230925473,0.0,0.01545,0.073349,0.126614,427.0,427.0,427.0,0.0,0.0,-360.0,360.0
152,188.194023918039,-435.1993753777865,0.0,435.1993753777865,0.0,0.01545,0.073349,0.126614,427.0,427.0,427.0,0.0,0.0,-360.0,360.0
153,65.4795516314015,-138.1881469210505,0.0,138.1881469210505,0.0,0.01457,0.07955,0.14007,324.0,324.0,324.0,0.0,0.0,-360.0,360.0
154,65.0976560010467,-101.47501920603031,0.0,101.47501920603031,0.0,0.01457,0.07955,0.14007,324.0,324.0,324.0,0.0,0.0,-360.0,360.0
155,66.5127610278855,77.00439935308545,0.0,-77.00439935308545,0.0,0.006031,0.04401,0.069793,316.0,316.0,316.0,0.0,0.0,-360.0,360.0
156,175.665467762427,470.8636858324004,0.0,-470.8636858324004,0.0,0.011031,0.08057,0.124127,404.0,404.0,404.0,0.0,0.0,-360.0,360.0
157,96.3783403697248,-96.47423322601718,0.0,96.47423322601718,0.0,0.005831,0.04231,0.070664,383.0,383.0,383.0,0.0,0.0,-360.0,360.0
158,66.2803552438949,337.3170859099363,0.0,-337.3170859099363,0.0,0.01849,0.095599,0.159139,305.0,305.0,305.0,0.0,0.0,-360.0,360.0
159,91.3776827908844,0.0,0.0,-0.0,0.0,0.010581,0.053,0.088475,385.0,385.0,385.0,0.0,0.0,-360.0,360.0
160,157.484035031225,-486.338482312698,0.0,486.338482312698,0.0,0.012521,0.091359,0.145394,453.0,453.0,453.0,0.0,0.0,-360.0,360.0
161,44.0259992065855,-77.36923425306938,0.0,77.36923425306938,0.0,0.00506,0.036539,0.063598,305.0,305.0,305.0,0.0,0.0,-360.0,360.0
162,9.98930331563139,440.05880774656464,0.0,-440.05880774656464,0.0,0.01043,0.077891,0.122065,383.0,383.0,383.0,0.0,0.0,-360.0,360.0
163,42.7977524359427,344.6140000000112,0.0,-344.6140000000112,0.0,0.007702,0.056917,0.086733,316.0,316.0,316.0,0.0,0.0,-360.0,360.0
164,158.537405482369,-344.6140000000076,0.0,344.6140000000076,0.0,0.002256,0.016674,0.02541,333.0,333.0,333.0,0.0,0.0,-360.0,360.0
165,114.491229552774,0.0,0.0,-0.0,0.0,0.009147,0.089554,0.215196,246.0,246.0,246.0,0.0,0.0,-360.0,360.0
166,0.0,100.0,0.0,-100.0,0.0,0.00244,0.01318,0.021296,341.0,341.0,341.0,0.0,0.0,-360.0,360.0
167,92.0106078265381,0.0,0.0,-0.0,0.0,0.00355,0.02593,0.041237,404.0,404.0,404.0,0.0,0.0,-360.0,360.0
168,77.6445817416105,-65.22399999997165,0.0,65.22399999997165,0.0,0.01312,0.076219,0.116644,324.0,324.0,324.0,0.0,0.0,-360.0,360.0
169,43.9662618094367,370.0529014137924,0.0,-370.0529014137924,0.0,0.009341,0.05225,0.087701,305.0,305.0,305.0,0.0,0.0,-360.0,360.0
170,199.383839191314,-371.9756238283383,0.0,371.9756238283383,0.0,0.006141,0.032521,0.052456,356.0,356.0,356.0,0.0,0.0,-360.0,360.0
171,205.464564467545,-595.1669310121237,0.0,595.1669310121237,0.0,0.00438,0.03188,0.050723,453.0,453.0,453.0,0.0,0.0,-360.0,360.0
172,94.6820386698382,-181.74499999999887,0.0,181.74499999999887,0.0,4.79E-4,0.00331,0.005711,404.0,404.0,404.0,0.0,0.0,-360.0,360.0
173,99.3412843448579,181.7449999999995,0.0,-181.7449999999995,0.0,4.79E-4,0.00331,0.005711,404.0,404.0,404.0,0.0,0.0,-360.0,360.0
174,107.452435701193,368.6578033109558,0.0,-368.6578033109558,0.0,0.010539,0.076859,0.122355,316.0,316.0,316.0,0.0,0.0,-360.0,360.0
175,132.663593486678,-147.33398321437156,0.0,147.33398321437156,0.0,0.00469,0.034651,0.053821,383.0,383.0,383.0,0.0,0.0,-360.0,360.0
176,111.767768155738,124.0639005500084,0.0,-124.0639005500084,0.0,0.006469,0.0413,0.069212,383.0,383.0,383.0,0.0,0.0,-360.0,360.0
177,37.0257530179863,-39.674372534684096,0.0,39.674372534684096,0.0,0.00105,0.007211,0.01028,316.0,316.0,316.0,0.0,0.0,-360.0,360.0
178,7.63745816256664,-6.959627465315919,0.0,6.959627465315919,0.0,0.006099,0.044831,0.070954,316.0,316.0,316.0,0.0,0.0,-360.0,360.0
179,30.9135285958425,64.57614999971496,0.0,-64.57614999971496,0.0,0.002211,0.01655,0.024781,316.0,316.0,316.0,0.0,0.0,-360.0,360.0
180,67.6791196780289,-7.205536274913805E-12,0.0,7.205536274913805E-12,0.0,0.005169,0.036979,0.058951,316.0,316.0,316.0,0.0,0.0,-360.0,360.0
181,99.9591601072603,55.19200000000693,0.0,-55.19200000000693,0.0,0.002401,0.017789,0.027588,381.0,381.0,381.0,0.0,0.0,-360.0,360.0
182,128.11089359087,5.051030892588255E-13,0.0,-5.051030892588255E-13,0.0,0.00274,0.02696,0.70592,977.0,977.0,977.0,0.0,0.0,-360.0,360.0
183,119.600421559693,1228.8596396043101,0.0,-1228.8596396043101,0.0,0.0017,0.01733,0.45632,915.0,915.0,915.0,0.0,0.0,-360.0,360.0
184,132.374527502245,2.821405399301541E-11,0.0,-2.821405399301541E-11,0.0,0.00136,0.01574,0.433664,1469.0,1469.0,1469.0,0.0,0.0,-360.0,360.0
185,98.9075005919979,-794.7628726193075,0.0,794.7628726193075,0.0,0.00371,0.04326,1.18688,693.0,693.0,693.0,0.0,0.0,-360.0,360.0
186,58.8900568867955,-922.3913373323871,0.0,922.3913373323871,0.0,0.01882,0.137581,0.25381,299.0,299.0,299.0,0.0,0.0,-360.0,360.0
187,49.4163699165422,-1174.4083999321783,0.0,1174.4083999321783,0.0,0.02756,0.16014,0.242871,269.0,269.0,269.0,0.0,0.0,-360.0,360.0
188,24.7953507916041,385.5003580703298,0.0,-385.5003580703298,0.0,0.01905,0.11132,0.167851,269.0,269.0,269.0,0.0,0.0,-360.0,360.0
189,13.2301640094491,456.76864306611725,0.0,-456.76864306611725,0.0,0.00795,0.05919,0.090798,316.0,316.0,316.0,0.0,0.0,-360.0,360.0
190,63.4774478098699,69.85799999999958,0.0,-69.85799999999958,0.0,0.0018,0.021141,0.051498,633.0,633.0,633.0,0.0,0.0,-360.0,360.0
191,32.0237869014392,85.80574118181296,0.0,-85.80574118181296,0.0,0.00731,0.055789,0.083635,274.0,274.0,274.0,0.0,0.0,-360.0,360.0
192,51.6684720384261,407.1933495687047,0.0,-407.1933495687047,0.0,0.00564,0.041961,0.064372,274.0,274.0,274.0,0.0,0.0,-360.0,360.0
193,60.9605424969497,-23.64492404855755,0.0,23.64492404855755,0.0,0.0057,0.04236,0.129712,366.0,366.0,366.0,0.0,0.0,-360.0,360.0
194,132.939102335202,1437.1121079891836,0.0,-1437.1121079891836,0.0,0.00131,0.01548,0.41152,1150.0,1150.0,1150.0,0.0,0.0,-360.0,360.0
195,64.4782164907908,-2156.298566607034,0.0,2156.298566607034,0.0,0.00224,0.02583,0.72352,831.0,831.0,831.0,0.0,0.0,-360.0,360.0
196,118.950707385127,3.784851220313033E-13,0.0,-3.784851220313033E-13,0.0,0.0021,0.02475,0.65792,1150.0,1150.0,1150.0,0.0,0.0,-360.0,360.0
197,208.98694630121,1656.0795383533048,0.0,-1656.0795383533048,0.0,0.0015,0.01768,0.46944,831.0,831.0,831.0,0.0,0.0,-360.0,360.0
198,160.875521727254,-101.80127581448686,0.0,101.80127581448686,0.0,0.00133,0.01569,0.418208,831.0,831.0,831.0,0.0,0.0,-360.0,360.0
199,161.20798801238,-101.70327627271745,0.0,101.70327627271745,0.0,0.00133,0.01569,0.418208,831.0,831.0,831.0,0.0,0.0,-360.0,360.0
200,95.238474655785,-539.5227867550212,0.0,539.5227867550212,0.0,0.00157,0.06612,0.0,160.0,160.0,160.0,1.041,0.0,-360.0,360.0
...
